/*--------------------------------*- C++ -*----------------------------------*\ 
| =========                 |                                                 |
| \\      /  F ield         | OpenFOAM: The Open Source CFD Toolbox           |
|  \\    /   O peration     | Version:  dev                                   |
|   \\  /    A nd           | Web:      www.OpenFOAM.org                      |
|    \\/     M anipulation  |                                                 |
\*---------------------------------------------------------------------------*/
FoamFile {
    version     2.0;
    format      ascii;
    class       dictionary;
    object      blockMeshDict;
}
// * * * * * * * * * * * * * * * * * * * * * * * * * * * * * * * * * * * * * //

convertToMeters 1;

vertices
(
    (0 0 -1)
    (4 0 -1)
    (4 3 -1)
    (0 3 -1)
    (0 0 1)
    (4 0 1)
    (4 3 1)
    (0 3 1)
);

blocks
(
	hex (0 1 2 3 4 5 6 7)
	    (4 3 1)
	    simpleGrading (1 1 1)
);

boundary
(
	inlet
    {
		type patch;
		faces
        (
			(0 3 7 4)
		);
	}

	outlet
    {
		type patch;
		faces
        (
			(1 2 6 5)
		);
	}

	ground
    {
		type empty;
		faces
        (
			(0 1 2 3)
		);	
	}

	top
    {
		type empty;
		faces
        (
			(4 5 6 7)
		);
	}

	front
    {
		type patch;
		faces
        (
			(0 1 5 4)
        );
    }

    back
    {
        type patch;
        faces
        (
			(3 2 6 7)
		);
	}
);

mergePatchPairs
(
);

// ************************************************************************* //
